LAMMPS (15 Sep 2022)
variable T equal 94.0

units metal
boundary p p p
atom_style atomic

read_data nve.lmp
Reading data file ...
  orthogonal box = (0 0 0) to (23.1206 23.1206 23.1206)
  reading atoms ...
  256 atoms
  reading velocities ...
  256 velocities

neighbor 0.1 bin
neigh_modify delay 10 check no

pair_style lj/cut 15.0
pair_coeff 1 1 0.0103 3.405 15.0

thermo 1000
thermo_style custom step temp pe ke etotal press density

# Calculate the kinetic energy
compute g2 all rdf 1000
fix 1 all nve
fix temp_1 all ave/time 1 10000 10000 c_thermo_temp file temp.dat
fix g2_1 all ave/time 1 5000000 5000000 c_g2[*] file rdf.dat mode vector

dump 1 all custom 1000 argon.dump id type x y z vx vy vz

run 5000000
Generated 0 of 0 mixed pair_coeff terms from geometric mixing rule
Step          Temp          PotEng         KinEng         TotEng         Press         Density
0   94.000751     -15.191308      3.0983904     -12.092918      142.00676      1.3740002
Averages over the last 2501 of 5001 rows, steps 2500000 to 5000000:
Temp PotEng KinEng TotEng Press Density
94.5142 -15.2084 3.11532 -12.0931 114.356 1.374
Loop time of 16827.8 on 1 procs for 5000000 steps with 256 atoms
