LAMMPS (15 Sep 2022)
variable T equal 94.0

units metal
boundary p p p
atom_style atomic

read_data nve.lmp
Reading data file ...
  orthogonal box = (0 0 0) to (23.1206 17.34045 17.34045)
  reading atoms ...
  144 atoms
  reading velocities ...
  144 velocities

neighbor 0.1 bin
neigh_modify delay 10 check no

pair_style lj/cut 15.0
pair_coeff 1 1 0.0103 3.405 15.0

thermo 1000
thermo_style custom step temp pe ke etotal press density

# Calculate the kinetic energy
compute g2 all rdf 1000
fix 1 all nve
fix temp_1 all ave/time 1 10000 10000 c_thermo_temp file temp.dat
fix g2_1 all ave/time 1 5000000 5000000 c_g2[*] file rdf.dat mode vector

dump 1 all custom 1000 argon.dump id type x y z vx vy vz

run 5000000
Generated 0 of 0 mixed pair_coeff terms from geometric mixing rule
Step          Temp          PotEng         KinEng         TotEng         Press         Density
0   94.009886     -8.5285113      1.7376976     -6.7908137      99.077338      1.3740002
Averages over the last 2501 of 5001 rows, steps 2500000 to 5000000:
Temp PotEng KinEng TotEng Press Density
94.9128 -8.54504 1.75439 -6.79066 119.242 1.374
Loop time of 9641.34 on 1 procs for 5000000 steps with 144 atoms
